Title: NPN diode modifier
********************************

*Input Voltage Source
*********************
VCC 1 0 DC 0
D1 1 0 DMODNPN 1 temp=25

*Input
********
.dc VCC 0 1 0.01

*Output
.print dc format=noindex file={output_filename}
+ V(1)
+ I(D1)


.model DMODNPN D (IS ={NPN_IS1}
+ N ={NPN_N1})

*end of the netlist
.end
