Title: PNP diode modifier
********************************

*Input Voltage Source
*********************
VCC 1 0 DC 0
D1 1 0 DMODPNP1 1 temp=25
D2 1 0 DMODPNP2 1 temp=25

*Input
********
.dc VCC 0 1 0.01

*Output
.print dc format=noindex file=noindex file={output_filename}
+ V(1)
+ {I(D1)+I(D2)}


.model DMODPNP1 D (IS = {PNP_IS1}
+ N ={PNP_N1})

.model DMODPNP2 D (IS = {PNP_IS2}
+ N = {PNP_N2})

*end of the netlist
.end
